!- Sjöstaden 2 - 7-Zone Per-Floor Model
!- Full 8760-hour annual simulation
!- Building: 7 floors, 2200 m² Atemp, Stockholm climate
Version,25.1;

Building,
    Sjostaden_2_7Zone,        !- Name
    0,                        !- North Axis
    City,                     !- Terrain
    0.04,                     !- Loads Convergence Tolerance Value
    0.4,                      !- Temperature Convergence Tolerance Value
    FullInteriorAndExterior,  !- Solar Distribution (for inter-zone)
    25,                       !- Maximum Number of Warmup Days
    6;                        !- Minimum Number of Warmup Days

Timestep,4;

SimulationControl,
    No,                       !- Do Zone Sizing Calculation
    No,                       !- Do System Sizing Calculation
    No,                       !- Do Plant Sizing Calculation
    No,                       !- Run Simulation for Sizing Periods
    Yes;                      !- Run Simulation for Weather File Run Periods

RunPeriod,
    Annual,                   !- Name
    1,                        !- Begin Month
    1,                        !- Begin Day of Month
    ,                         !- Begin Year
    12,                       !- End Month
    31,                       !- End Day of Month
    ,                         !- End Year
    Sunday,                   !- Day of Week for Start Day
    No,                       !- Use Weather File Holidays and Special Days
    No,                       !- Use Weather File Daylight Saving Period
    No,                       !- Apply Weekend Holiday Rule
    Yes,                      !- Use Weather File Rain Indicators
    Yes;                      !- Use Weather File Snow Indicators

GlobalGeometryRules,
    UpperLeftCorner,          !- Starting Vertex Position
    Counterclockwise,         !- Vertex Entry Direction
    Relative;                 !- Coordinate System

!- Ground temperature (Swedish average soil temp)
Site:GroundTemperature:BuildingSurface,
    8, 8, 8, 10, 12, 14, 16, 16, 14, 12, 10, 8;

!- Schedule Type Limits
ScheduleTypeLimits,
    Fraction,                 !- Name
    0,                        !- Lower Limit Value
    1,                        !- Upper Limit Value
    Continuous,               !- Numeric Type
    Dimensionless;            !- Unit Type

ScheduleTypeLimits,
    Temperature,              !- Name
    -50,                      !- Lower Limit Value
    50,                       !- Upper Limit Value
    Continuous,               !- Numeric Type
    Temperature;              !- Unit Type

ScheduleTypeLimits,
    Any Number,               !- Name
    ,                         !- Lower Limit Value
    ,                         !- Upper Limit Value
    Continuous;               !- Numeric Type

!- Constant schedules
Schedule:Constant,AlwaysOn,Fraction,1;
Schedule:Constant,ActivityLevel,Any Number,120;
Schedule:Constant,HeatingSetpoint,Temperature,21;
Schedule:Constant,CoolingSetpoint,Temperature,26;
Schedule:Constant,ThermostatType,Any Number,4;

!- Sveby residential schedules
Schedule:Compact,
    OccupancySchedule,        !- Name
    Fraction,                 !- Schedule Type Limits Name
    Through: 12/31,           !- Field 1
    For: AllDays,             !- Field 2
    Until: 07:00, 0.9,
    Until: 09:00, 0.5,
    Until: 17:00, 0.2,
    Until: 22:00, 0.9,
    Until: 24:00, 0.9;

Schedule:Compact,
    LightingSchedule,         !- Name
    Fraction,                 !- Schedule Type Limits Name
    Through: 12/31,           !- Field 1
    For: AllDays,             !- Field 2
    Until: 06:00, 0.05,
    Until: 08:00, 0.5,
    Until: 17:00, 0.1,
    Until: 22:00, 0.7,
    Until: 24:00, 0.3;

Schedule:Compact,
    EquipmentSchedule,        !- Name
    Fraction,                 !- Schedule Type Limits Name
    Through: 12/31,           !- Field 1
    For: AllDays,             !- Field 2
    Until: 07:00, 0.3,
    Until: 09:00, 0.6,
    Until: 17:00, 0.3,
    Until: 22:00, 0.7,
    Until: 24:00, 0.4;

!- Materials (back-calculated U-values from measured 33 kWh/m²/year)
Material,
    Concrete200,              !- Name
    MediumRough,              !- Roughness
    0.2,                      !- Thickness (m)
    1.7,                      !- Conductivity (W/m-K)
    2300,                     !- Density (kg/m3)
    900;                      !- Specific Heat (J/kg-K)

Material,
    Concrete150,              !- Name
    MediumRough,              !- Roughness
    0.15,                     !- Thickness (m)
    1.7,                      !- Conductivity (W/m-K)
    2300,                     !- Density (kg/m3)
    900;                      !- Specific Heat (J/kg-K)

Material,
    WallInsulation,           !- Name
    MediumRough,              !- Roughness
    0.28,                     !- Thickness → U=0.11 W/m²K
    0.035,                    !- Conductivity (mineral wool)
    30,                       !- Density
    840;                      !- Specific Heat

Material,
    RoofInsulation,           !- Name
    MediumRough,              !- Roughness
    0.40,                     !- Thickness → U=0.08 W/m²K
    0.035,                    !- Conductivity
    30,                       !- Density
    840;                      !- Specific Heat

Material,
    FloorInsulation,          !- Name
    MediumRough,              !- Roughness
    0.15,                     !- Thickness (ground floor)
    0.035,                    !- Conductivity
    30,                       !- Density
    840;                      !- Specific Heat

Construction,
    ExteriorWall,             !- Name
    Concrete200,              !- Outside Layer
    WallInsulation;           !- Inside Layer

Construction,
    Roof,                     !- Name
    Concrete200,              !- Outside Layer
    RoofInsulation;           !- Inside Layer

Construction,
    GroundFloor,              !- Name
    Concrete200,              !- Outside Layer
    FloorInsulation;          !- Inside Layer

Construction,
    InteriorFloor,            !- Name
    Concrete150;              !- Single layer (thermal mass)

!- Triple glazing (U=0.8 from back-calculation)
WindowMaterial:SimpleGlazingSystem,
    TripleGlazing,            !- Name
    0.8,                      !- U-Factor (W/m²K)
    0.5,                      !- Solar Heat Gain Coefficient
    0.65;                     !- Visible Transmittance

Construction,
    WindowConstruction,       !- Name
    TripleGlazing;            !- Outside Layer

!- ============================================================
!- ZONE DEFINITIONS (7 floors)
!- Building footprint: 20m x 16m = 320 m² per floor
!- Total: 320 x 7 = 2240 m² ≈ 2200 m² Atemp
!- ============================================================

Zone,
    Floor1,                   !- Name
    0,                        !- Direction of Relative North
    0, 0, 0,                  !- X,Y,Z Origin
    1,                        !- Type
    1,                        !- Multiplier
    3,                        !- Ceiling Height (m)
    960;                      !- Volume (320 m² x 3m)

Zone,
    Floor2,                   !- Name
    0,                        !- Direction of Relative North
    0, 0, 3,                  !- X,Y,Z Origin
    1,                        !- Type
    1,                        !- Multiplier
    3,                        !- Ceiling Height (m)
    960;                      !- Volume

Zone,
    Floor3,                   !- Name
    0,                        !- Direction of Relative North
    0, 0, 6,                  !- X,Y,Z Origin
    1,                        !- Type
    1,                        !- Multiplier
    3,                        !- Ceiling Height (m)
    960;                      !- Volume

Zone,
    Floor4,                   !- Name
    0,                        !- Direction of Relative North
    0, 0, 9,                  !- X,Y,Z Origin
    1,                        !- Type
    1,                        !- Multiplier
    3,                        !- Ceiling Height (m)
    960;                      !- Volume

Zone,
    Floor5,                   !- Name
    0,                        !- Direction of Relative North
    0, 0, 12,                 !- X,Y,Z Origin
    1,                        !- Type
    1,                        !- Multiplier
    3,                        !- Ceiling Height (m)
    960;                      !- Volume

Zone,
    Floor6,                   !- Name
    0,                        !- Direction of Relative North
    0, 0, 15,                 !- X,Y,Z Origin
    1,                        !- Type
    1,                        !- Multiplier
    3,                        !- Ceiling Height (m)
    960;                      !- Volume

Zone,
    Floor7,                   !- Name
    0,                        !- Direction of Relative North
    0, 0, 18,                 !- X,Y,Z Origin
    1,                        !- Type
    1,                        !- Multiplier
    3,                        !- Ceiling Height (m)
    960;                      !- Volume

!- ============================================================
!- FLOOR 1 SURFACES (Ground floor)
!- ============================================================

BuildingSurface:Detailed,
    Floor1_Floor,             !- Name
    Floor,                    !- Surface Type
    GroundFloor,              !- Construction Name
    Floor1,                   !- Zone Name
    ,                         !- Space Name
    Ground,                   !- Outside Boundary Condition
    ,                         !- Outside Boundary Condition Object
    NoSun,                    !- Sun Exposure
    NoWind,                   !- Wind Exposure
    0,                        !- View Factor to Ground
    4,                        !- Number of Vertices
    0, 0, 0,
    0, 16, 0,
    20, 16, 0,
    20, 0, 0;

BuildingSurface:Detailed,
    Floor1_Ceiling,           !- Name
    Ceiling,                  !- Surface Type
    InteriorFloor,            !- Construction Name
    Floor1,                   !- Zone Name
    ,                         !- Space Name
    Surface,                  !- Outside Boundary Condition
    Floor2_Floor,             !- Outside Boundary Condition Object
    NoSun,                    !- Sun Exposure
    NoWind,                   !- Wind Exposure
    0,                        !- View Factor to Ground
    4,                        !- Number of Vertices
    20, 0, 3,
    20, 16, 3,
    0, 16, 3,
    0, 0, 3;

BuildingSurface:Detailed,
    Floor1_WallNorth,         !- Name
    Wall,                     !- Surface Type
    ExteriorWall,             !- Construction Name
    Floor1,                   !- Zone Name
    ,                         !- Space Name
    Outdoors,                 !- Outside Boundary Condition
    ,                         !- Outside Boundary Condition Object
    SunExposed,               !- Sun Exposure
    WindExposed,              !- Wind Exposure
    0.5,                      !- View Factor to Ground
    4,                        !- Number of Vertices
    0, 16, 3,
    0, 16, 0,
    20, 16, 0,
    20, 16, 3;

BuildingSurface:Detailed,
    Floor1_WallSouth,         !- Name
    Wall,                     !- Surface Type
    ExteriorWall,             !- Construction Name
    Floor1,                   !- Zone Name
    ,                         !- Space Name
    Outdoors,                 !- Outside Boundary Condition
    ,                         !- Outside Boundary Condition Object
    SunExposed,               !- Sun Exposure
    WindExposed,              !- Wind Exposure
    0.5,                      !- View Factor to Ground
    4,                        !- Number of Vertices
    20, 0, 3,
    20, 0, 0,
    0, 0, 0,
    0, 0, 3;

BuildingSurface:Detailed,
    Floor1_WallEast,          !- Name
    Wall,                     !- Surface Type
    ExteriorWall,             !- Construction Name
    Floor1,                   !- Zone Name
    ,                         !- Space Name
    Outdoors,                 !- Outside Boundary Condition
    ,                         !- Outside Boundary Condition Object
    SunExposed,               !- Sun Exposure
    WindExposed,              !- Wind Exposure
    0.5,                      !- View Factor to Ground
    4,                        !- Number of Vertices
    20, 16, 3,
    20, 16, 0,
    20, 0, 0,
    20, 0, 3;

BuildingSurface:Detailed,
    Floor1_WallWest,          !- Name
    Wall,                     !- Surface Type
    ExteriorWall,             !- Construction Name
    Floor1,                   !- Zone Name
    ,                         !- Space Name
    Outdoors,                 !- Outside Boundary Condition
    ,                         !- Outside Boundary Condition Object
    SunExposed,               !- Sun Exposure
    WindExposed,              !- Wind Exposure
    0.5,                      !- View Factor to Ground
    4,                        !- Number of Vertices
    0, 0, 3,
    0, 0, 0,
    0, 16, 0,
    0, 16, 3;

!- Floor 1 Windows (WWR ~17%)
FenestrationSurface:Detailed,
    Floor1_WinSouth,          !- Name
    Window,                   !- Surface Type
    WindowConstruction,       !- Construction Name
    Floor1_WallSouth,         !- Building Surface Name
    ,                         !- Outside Boundary Condition Object
    0.5,                      !- View Factor to Ground
    ,                         !- Frame and Divider Name
    1,                        !- Multiplier
    4,                        !- Number of Vertices
    16, 0, 2.5,
    16, 0, 0.8,
    4, 0, 0.8,
    4, 0, 2.5;

FenestrationSurface:Detailed,
    Floor1_WinNorth,          !- Name
    Window,                   !- Surface Type
    WindowConstruction,       !- Construction Name
    Floor1_WallNorth,         !- Building Surface Name
    ,                         !- Outside Boundary Condition Object
    0.5,                      !- View Factor to Ground
    ,                         !- Frame and Divider Name
    1,                        !- Multiplier
    4,                        !- Number of Vertices
    4, 16, 2.5,
    4, 16, 0.8,
    16, 16, 0.8,
    16, 16, 2.5;

FenestrationSurface:Detailed,
    Floor1_WinEast,           !- Name
    Window,                   !- Surface Type
    WindowConstruction,       !- Construction Name
    Floor1_WallEast,          !- Building Surface Name
    ,                         !- Outside Boundary Condition Object
    0.5,                      !- View Factor to Ground
    ,                         !- Frame and Divider Name
    1,                        !- Multiplier
    4,                        !- Number of Vertices
    20, 12, 2.5,
    20, 12, 0.8,
    20, 4, 0.8,
    20, 4, 2.5;

FenestrationSurface:Detailed,
    Floor1_WinWest,           !- Name
    Window,                   !- Surface Type
    WindowConstruction,       !- Construction Name
    Floor1_WallWest,          !- Building Surface Name
    ,                         !- Outside Boundary Condition Object
    0.5,                      !- View Factor to Ground
    ,                         !- Frame and Divider Name
    1,                        !- Multiplier
    4,                        !- Number of Vertices
    0, 4, 2.5,
    0, 4, 0.8,
    0, 12, 0.8,
    0, 12, 2.5;

!- ============================================================
!- FLOOR 2 SURFACES
!- ============================================================

BuildingSurface:Detailed,
    Floor2_Floor,             !- Name
    Floor,                    !- Surface Type
    InteriorFloor,            !- Construction Name
    Floor2,                   !- Zone Name
    ,                         !- Space Name
    Surface,                  !- Outside Boundary Condition
    Floor1_Ceiling,           !- Outside Boundary Condition Object
    NoSun,                    !- Sun Exposure
    NoWind,                   !- Wind Exposure
    0,                        !- View Factor to Ground
    4,                        !- Number of Vertices
    0, 0, 3,
    0, 16, 3,
    20, 16, 3,
    20, 0, 3;

BuildingSurface:Detailed,
    Floor2_Ceiling,           !- Name
    Ceiling,                  !- Surface Type
    InteriorFloor,            !- Construction Name
    Floor2,                   !- Zone Name
    ,                         !- Space Name
    Surface,                  !- Outside Boundary Condition
    Floor3_Floor,             !- Outside Boundary Condition Object
    NoSun,                    !- Sun Exposure
    NoWind,                   !- Wind Exposure
    0,                        !- View Factor to Ground
    4,                        !- Number of Vertices
    20, 0, 6,
    20, 16, 6,
    0, 16, 6,
    0, 0, 6;

BuildingSurface:Detailed,
    Floor2_WallNorth,         !- Name
    Wall,                     !- Surface Type
    ExteriorWall,             !- Construction Name
    Floor2,                   !- Zone Name
    ,                         !- Space Name
    Outdoors,                 !- Outside Boundary Condition
    ,                         !- Outside Boundary Condition Object
    SunExposed,               !- Sun Exposure
    WindExposed,              !- Wind Exposure
    0.5,                      !- View Factor to Ground
    4,                        !- Number of Vertices
    0, 16, 6,
    0, 16, 3,
    20, 16, 3,
    20, 16, 6;

BuildingSurface:Detailed,
    Floor2_WallSouth,         !- Name
    Wall,                     !- Surface Type
    ExteriorWall,             !- Construction Name
    Floor2,                   !- Zone Name
    ,                         !- Space Name
    Outdoors,                 !- Outside Boundary Condition
    ,                         !- Outside Boundary Condition Object
    SunExposed,               !- Sun Exposure
    WindExposed,              !- Wind Exposure
    0.5,                      !- View Factor to Ground
    4,                        !- Number of Vertices
    20, 0, 6,
    20, 0, 3,
    0, 0, 3,
    0, 0, 6;

BuildingSurface:Detailed,
    Floor2_WallEast,          !- Name
    Wall,                     !- Surface Type
    ExteriorWall,             !- Construction Name
    Floor2,                   !- Zone Name
    ,                         !- Space Name
    Outdoors,                 !- Outside Boundary Condition
    ,                         !- Outside Boundary Condition Object
    SunExposed,               !- Sun Exposure
    WindExposed,              !- Wind Exposure
    0.5,                      !- View Factor to Ground
    4,                        !- Number of Vertices
    20, 16, 6,
    20, 16, 3,
    20, 0, 3,
    20, 0, 6;

BuildingSurface:Detailed,
    Floor2_WallWest,          !- Name
    Wall,                     !- Surface Type
    ExteriorWall,             !- Construction Name
    Floor2,                   !- Zone Name
    ,                         !- Space Name
    Outdoors,                 !- Outside Boundary Condition
    ,                         !- Outside Boundary Condition Object
    SunExposed,               !- Sun Exposure
    WindExposed,              !- Wind Exposure
    0.5,                      !- View Factor to Ground
    4,                        !- Number of Vertices
    0, 0, 6,
    0, 0, 3,
    0, 16, 3,
    0, 16, 6;

FenestrationSurface:Detailed,
    Floor2_WinSouth,          !- Name
    Window,                   !- Surface Type
    WindowConstruction,       !- Construction Name
    Floor2_WallSouth,         !- Building Surface Name
    ,                         !- Outside Boundary Condition Object
    0.5,                      !- View Factor to Ground
    ,                         !- Frame and Divider Name
    1,                        !- Multiplier
    4,                        !- Number of Vertices
    16, 0, 5.5,
    16, 0, 3.8,
    4, 0, 3.8,
    4, 0, 5.5;

FenestrationSurface:Detailed,
    Floor2_WinNorth,          !- Name
    Window,                   !- Surface Type
    WindowConstruction,       !- Construction Name
    Floor2_WallNorth,         !- Building Surface Name
    ,                         !- Outside Boundary Condition Object
    0.5,                      !- View Factor to Ground
    ,                         !- Frame and Divider Name
    1,                        !- Multiplier
    4,                        !- Number of Vertices
    4, 16, 5.5,
    4, 16, 3.8,
    16, 16, 3.8,
    16, 16, 5.5;

FenestrationSurface:Detailed,
    Floor2_WinEast,           !- Name
    Window,                   !- Surface Type
    WindowConstruction,       !- Construction Name
    Floor2_WallEast,          !- Building Surface Name
    ,                         !- Outside Boundary Condition Object
    0.5,                      !- View Factor to Ground
    ,                         !- Frame and Divider Name
    1,                        !- Multiplier
    4,                        !- Number of Vertices
    20, 12, 5.5,
    20, 12, 3.8,
    20, 4, 3.8,
    20, 4, 5.5;

FenestrationSurface:Detailed,
    Floor2_WinWest,           !- Name
    Window,                   !- Surface Type
    WindowConstruction,       !- Construction Name
    Floor2_WallWest,          !- Building Surface Name
    ,                         !- Outside Boundary Condition Object
    0.5,                      !- View Factor to Ground
    ,                         !- Frame and Divider Name
    1,                        !- Multiplier
    4,                        !- Number of Vertices
    0, 4, 5.5,
    0, 4, 3.8,
    0, 12, 3.8,
    0, 12, 5.5;

!- ============================================================
!- FLOOR 3 SURFACES
!- ============================================================

BuildingSurface:Detailed,
    Floor3_Floor,             !- Name
    Floor,                    !- Surface Type
    InteriorFloor,            !- Construction Name
    Floor3,                   !- Zone Name
    ,                         !- Space Name
    Surface,                  !- Outside Boundary Condition
    Floor2_Ceiling,           !- Outside Boundary Condition Object
    NoSun,                    !- Sun Exposure
    NoWind,                   !- Wind Exposure
    0,                        !- View Factor to Ground
    4,                        !- Number of Vertices
    0, 0, 6,
    0, 16, 6,
    20, 16, 6,
    20, 0, 6;

BuildingSurface:Detailed,
    Floor3_Ceiling,           !- Name
    Ceiling,                  !- Surface Type
    InteriorFloor,            !- Construction Name
    Floor3,                   !- Zone Name
    ,                         !- Space Name
    Surface,                  !- Outside Boundary Condition
    Floor4_Floor,             !- Outside Boundary Condition Object
    NoSun,                    !- Sun Exposure
    NoWind,                   !- Wind Exposure
    0,                        !- View Factor to Ground
    4,                        !- Number of Vertices
    20, 0, 9,
    20, 16, 9,
    0, 16, 9,
    0, 0, 9;

BuildingSurface:Detailed,
    Floor3_WallNorth,         !- Name
    Wall,                     !- Surface Type
    ExteriorWall,             !- Construction Name
    Floor3,                   !- Zone Name
    ,                         !- Space Name
    Outdoors,                 !- Outside Boundary Condition
    ,                         !- Outside Boundary Condition Object
    SunExposed,               !- Sun Exposure
    WindExposed,              !- Wind Exposure
    0.5,                      !- View Factor to Ground
    4,                        !- Number of Vertices
    0, 16, 9,
    0, 16, 6,
    20, 16, 6,
    20, 16, 9;

BuildingSurface:Detailed,
    Floor3_WallSouth,         !- Name
    Wall,                     !- Surface Type
    ExteriorWall,             !- Construction Name
    Floor3,                   !- Zone Name
    ,                         !- Space Name
    Outdoors,                 !- Outside Boundary Condition
    ,                         !- Outside Boundary Condition Object
    SunExposed,               !- Sun Exposure
    WindExposed,              !- Wind Exposure
    0.5,                      !- View Factor to Ground
    4,                        !- Number of Vertices
    20, 0, 9,
    20, 0, 6,
    0, 0, 6,
    0, 0, 9;

BuildingSurface:Detailed,
    Floor3_WallEast,          !- Name
    Wall,                     !- Surface Type
    ExteriorWall,             !- Construction Name
    Floor3,                   !- Zone Name
    ,                         !- Space Name
    Outdoors,                 !- Outside Boundary Condition
    ,                         !- Outside Boundary Condition Object
    SunExposed,               !- Sun Exposure
    WindExposed,              !- Wind Exposure
    0.5,                      !- View Factor to Ground
    4,                        !- Number of Vertices
    20, 16, 9,
    20, 16, 6,
    20, 0, 6,
    20, 0, 9;

BuildingSurface:Detailed,
    Floor3_WallWest,          !- Name
    Wall,                     !- Surface Type
    ExteriorWall,             !- Construction Name
    Floor3,                   !- Zone Name
    ,                         !- Space Name
    Outdoors,                 !- Outside Boundary Condition
    ,                         !- Outside Boundary Condition Object
    SunExposed,               !- Sun Exposure
    WindExposed,              !- Wind Exposure
    0.5,                      !- View Factor to Ground
    4,                        !- Number of Vertices
    0, 0, 9,
    0, 0, 6,
    0, 16, 6,
    0, 16, 9;

FenestrationSurface:Detailed,
    Floor3_WinSouth,          !- Name
    Window,                   !- Surface Type
    WindowConstruction,       !- Construction Name
    Floor3_WallSouth,         !- Building Surface Name
    ,                         !- Outside Boundary Condition Object
    0.5,                      !- View Factor to Ground
    ,                         !- Frame and Divider Name
    1,                        !- Multiplier
    4,                        !- Number of Vertices
    16, 0, 8.5,
    16, 0, 6.8,
    4, 0, 6.8,
    4, 0, 8.5;

FenestrationSurface:Detailed,
    Floor3_WinNorth,          !- Name
    Window,                   !- Surface Type
    WindowConstruction,       !- Construction Name
    Floor3_WallNorth,         !- Building Surface Name
    ,                         !- Outside Boundary Condition Object
    0.5,                      !- View Factor to Ground
    ,                         !- Frame and Divider Name
    1,                        !- Multiplier
    4,                        !- Number of Vertices
    4, 16, 8.5,
    4, 16, 6.8,
    16, 16, 6.8,
    16, 16, 8.5;

FenestrationSurface:Detailed,
    Floor3_WinEast,           !- Name
    Window,                   !- Surface Type
    WindowConstruction,       !- Construction Name
    Floor3_WallEast,          !- Building Surface Name
    ,                         !- Outside Boundary Condition Object
    0.5,                      !- View Factor to Ground
    ,                         !- Frame and Divider Name
    1,                        !- Multiplier
    4,                        !- Number of Vertices
    20, 12, 8.5,
    20, 12, 6.8,
    20, 4, 6.8,
    20, 4, 8.5;

FenestrationSurface:Detailed,
    Floor3_WinWest,           !- Name
    Window,                   !- Surface Type
    WindowConstruction,       !- Construction Name
    Floor3_WallWest,          !- Building Surface Name
    ,                         !- Outside Boundary Condition Object
    0.5,                      !- View Factor to Ground
    ,                         !- Frame and Divider Name
    1,                        !- Multiplier
    4,                        !- Number of Vertices
    0, 4, 8.5,
    0, 4, 6.8,
    0, 12, 6.8,
    0, 12, 8.5;

!- ============================================================
!- FLOOR 4 SURFACES (Middle floor)
!- ============================================================

BuildingSurface:Detailed,
    Floor4_Floor,             !- Name
    Floor,                    !- Surface Type
    InteriorFloor,            !- Construction Name
    Floor4,                   !- Zone Name
    ,                         !- Space Name
    Surface,                  !- Outside Boundary Condition
    Floor3_Ceiling,           !- Outside Boundary Condition Object
    NoSun,                    !- Sun Exposure
    NoWind,                   !- Wind Exposure
    0,                        !- View Factor to Ground
    4,                        !- Number of Vertices
    0, 0, 9,
    0, 16, 9,
    20, 16, 9,
    20, 0, 9;

BuildingSurface:Detailed,
    Floor4_Ceiling,           !- Name
    Ceiling,                  !- Surface Type
    InteriorFloor,            !- Construction Name
    Floor4,                   !- Zone Name
    ,                         !- Space Name
    Surface,                  !- Outside Boundary Condition
    Floor5_Floor,             !- Outside Boundary Condition Object
    NoSun,                    !- Sun Exposure
    NoWind,                   !- Wind Exposure
    0,                        !- View Factor to Ground
    4,                        !- Number of Vertices
    20, 0, 12,
    20, 16, 12,
    0, 16, 12,
    0, 0, 12;

BuildingSurface:Detailed,
    Floor4_WallNorth,         !- Name
    Wall,                     !- Surface Type
    ExteriorWall,             !- Construction Name
    Floor4,                   !- Zone Name
    ,                         !- Space Name
    Outdoors,                 !- Outside Boundary Condition
    ,                         !- Outside Boundary Condition Object
    SunExposed,               !- Sun Exposure
    WindExposed,              !- Wind Exposure
    0.5,                      !- View Factor to Ground
    4,                        !- Number of Vertices
    0, 16, 12,
    0, 16, 9,
    20, 16, 9,
    20, 16, 12;

BuildingSurface:Detailed,
    Floor4_WallSouth,         !- Name
    Wall,                     !- Surface Type
    ExteriorWall,             !- Construction Name
    Floor4,                   !- Zone Name
    ,                         !- Space Name
    Outdoors,                 !- Outside Boundary Condition