!- Sjöstaden 2 - 7-Zone Swedish Residential Model
!- Realistic Swedish building physics per BBR/Sveby standards
!- Full 8760-hour annual simulation with ventilation + infiltration
Version,25.1;

Building,
    Sjostaden_2_Swedish,      !- Name
    0,                        !- North Axis
    City,                     !- Terrain
    0.04,                     !- Loads Convergence Tolerance Value
    0.4,                      !- Temperature Convergence Tolerance Value
    FullExterior,             !- Solar Distribution (simplified to avoid geometry warnings)
    25,                       !- Maximum Number of Warmup Days
    6;                        !- Minimum Number of Warmup Days

Timestep,4;

SimulationControl,
    No,                       !- Do Zone Sizing Calculation
    No,                       !- Do System Sizing Calculation
    No,                       !- Do Plant Sizing Calculation
    No,                       !- Run Simulation for Sizing Periods
    Yes;                      !- Run Simulation for Weather File Run Periods

RunPeriod,
    Annual,                   !- Name
    1,                        !- Begin Month
    1,                        !- Begin Day of Month
    ,                         !- Begin Year
    12,                       !- End Month
    31,                       !- End Day of Month
    ,                         !- End Year
    Sunday,                   !- Day of Week for Start Day
    No,                       !- Use Weather File Holidays and Special Days
    No,                       !- Use Weather File Daylight Saving Period
    No,                       !- Apply Weekend Holiday Rule
    Yes,                      !- Use Weather File Rain Indicators
    Yes;                      !- Use Weather File Snow Indicators

GlobalGeometryRules,
    UpperLeftCorner,          !- Starting Vertex Position
    Counterclockwise,         !- Vertex Entry Direction
    Relative;                 !- Coordinate System

!- Swedish ground temperatures (colder than default)
!- Stockholm average soil temps at 2m depth
Site:GroundTemperature:BuildingSurface,
    5, 4, 4, 5, 8, 11, 13, 14, 13, 11, 8, 6;

!- Schedule Type Limits
ScheduleTypeLimits,
    Fraction,                 !- Name
    0,                        !- Lower Limit Value
    1,                        !- Upper Limit Value
    Continuous,               !- Numeric Type
    Dimensionless;            !- Unit Type

ScheduleTypeLimits,
    Temperature,              !- Name
    -50,                      !- Lower Limit Value
    50,                       !- Upper Limit Value
    Continuous,               !- Numeric Type
    Temperature;              !- Unit Type

ScheduleTypeLimits,
    Any Number,               !- Name
    ,                         !- Lower Limit Value
    ,                         !- Upper Limit Value
    Continuous;               !- Numeric Type

!- Constant schedules
Schedule:Constant,AlwaysOn,Fraction,1;
Schedule:Constant,ActivityLevel,Any Number,120;
Schedule:Constant,HeatingSetpoint,Temperature,21;
Schedule:Constant,CoolingSetpoint,Temperature,26;
Schedule:Constant,ThermostatType,Any Number,4;

!- ============================================================
!- REALISTIC SWEDISH RESIDENTIAL SCHEDULES (Sveby-based)
!- Swedish families: both parents typically work
!- ============================================================

!- Occupancy: Swedish reality - low daytime, high evening/night
Schedule:Compact,
    OccupancySchedule,        !- Name
    Fraction,                 !- Schedule Type Limits Name
    Through: 12/31,           !- Field 1
    For: Weekdays,            !- Field 2
    Until: 06:00, 0.95,       !- Night - most home sleeping
    Until: 07:30, 0.70,       !- Morning rush
    Until: 08:30, 0.30,       !- Leaving for work/school
    Until: 16:00, 0.15,       !- Daytime - very few home (elderly, WFH, sick)
    Until: 17:30, 0.40,       !- Coming home from work
    Until: 22:00, 0.85,       !- Evening - family time
    Until: 24:00, 0.95,       !- Late night
    For: Weekends Holidays,   !- Field 9
    Until: 09:00, 0.95,       !- Weekend morning - sleep in
    Until: 12:00, 0.70,       !- Late breakfast
    Until: 18:00, 0.50,       !- Afternoon - some out shopping/activities
    Until: 22:00, 0.85,       !- Evening
    Until: 24:00, 0.95;       !- Night

!- Lighting: Swedish LED standard, follows occupancy loosely
Schedule:Compact,
    LightingSchedule,         !- Name
    Fraction,                 !- Schedule Type Limits Name
    Through: 12/31,           !- Field 1
    For: Weekdays,            !- Field 2
    Until: 06:00, 0.02,       !- Night lights only
    Until: 07:30, 0.40,       !- Morning
    Until: 08:30, 0.20,       !- Leaving
    Until: 16:00, 0.05,       !- Daytime - minimal
    Until: 17:30, 0.30,       !- Coming home
    Until: 22:00, 0.60,       !- Evening
    Until: 24:00, 0.20,       !- Late night
    For: Weekends Holidays,   !- Field 9
    Until: 09:00, 0.05,       !- Morning
    Until: 12:00, 0.20,       !- Late morning
    Until: 18:00, 0.15,       !- Afternoon
    Until: 22:00, 0.55,       !- Evening
    Until: 24:00, 0.15;       !- Night

!- Equipment: Swedish household - fridge always on, cooking peaks
Schedule:Compact,
    EquipmentSchedule,        !- Name
    Fraction,                 !- Schedule Type Limits Name
    Through: 12/31,           !- Field 1
    For: Weekdays,            !- Field 2
    Until: 06:00, 0.15,       !- Night - fridge, standby only
    Until: 07:30, 0.45,       !- Morning - coffee, breakfast
    Until: 08:30, 0.25,       !- Leaving
    Until: 16:00, 0.15,       !- Daytime - base load only
    Until: 17:30, 0.35,       !- Coming home
    Until: 19:00, 0.70,       !- Dinner cooking peak
    Until: 22:00, 0.50,       !- Evening - TV, computers
    Until: 24:00, 0.25,       !- Late night
    For: Weekends Holidays,   !- Field 9
    Until: 09:00, 0.15,       !- Night
    Until: 12:00, 0.50,       !- Brunch
    Until: 18:00, 0.35,       !- Afternoon
    Until: 20:00, 0.65,       !- Dinner
    Until: 23:00, 0.45,       !- Evening
    Until: 24:00, 0.20;       !- Night

!- Infiltration schedule (wind-driven, higher in winter due to stack effect)
Schedule:Compact,
    InfiltrationSchedule,     !- Name
    Fraction,                 !- Schedule Type Limits Name
    Through: 03/31,           !- Winter/Spring
    For: AllDays,
    Until: 24:00, 1.0,
    Through: 05/31,           !- Late spring
    For: AllDays,
    Until: 24:00, 0.7,
    Through: 08/31,           !- Summer
    For: AllDays,
    Until: 24:00, 0.5,
    Through: 10/31,           !- Fall
    For: AllDays,
    Until: 24:00, 0.7,
    Through: 12/31,           !- Late fall/winter
    For: AllDays,
    Until: 24:00, 1.0;

!- Ventilation schedule (FTX runs 24/7 but reduced at night per Swedish practice)
Schedule:Compact,
    VentilationSchedule,      !- Name
    Fraction,                 !- Schedule Type Limits Name
    Through: 12/31,
    For: AllDays,
    Until: 06:00, 0.7,        !- Night - reduced flow
    Until: 22:00, 1.0,        !- Day - full flow
    Until: 24:00, 0.8;        !- Evening - slightly reduced

!- ============================================================
!- MATERIALS (Sjöstaden 2003 eco-district quality)
!- Back-calculated U-values from measured 33 kWh/m²/year
!- ============================================================

Material,
    Concrete200,              !- Name
    MediumRough,              !- Roughness
    0.2,                      !- Thickness (m)
    1.7,                      !- Conductivity (W/m-K)
    2300,                     !- Density (kg/m3)
    900;                      !- Specific Heat (J/kg-K)

Material,
    Concrete150,              !- Name
    MediumRough,              !- Roughness
    0.15,                     !- Thickness (m)
    1.7,                      !- Conductivity (W/m-K)
    2300,                     !- Density (kg/m3)
    900;                      !- Specific Heat (J/kg-K)

Material,
    WallInsulation,           !- Name
    MediumRough,              !- Roughness
    0.28,                     !- Thickness → U=0.11 W/m²K
    0.035,                    !- Conductivity (mineral wool)
    30,                       !- Density
    840;                      !- Specific Heat

Material,
    RoofInsulation,           !- Name
    MediumRough,              !- Roughness
    0.40,                     !- Thickness → U=0.08 W/m²K
    0.035,                    !- Conductivity
    30,                       !- Density
    840;                      !- Specific Heat

Material,
    FloorInsulation,          !- Name
    MediumRough,              !- Roughness
    0.15,                     !- Thickness (ground floor)
    0.035,                    !- Conductivity
    30,                       !- Density
    840;                      !- Specific Heat

Construction,
    ExteriorWall,             !- Name
    Concrete200,              !- Outside Layer
    WallInsulation;           !- Inside Layer

Construction,
    Roof,                     !- Name
    Concrete200,              !- Outside Layer
    RoofInsulation;           !- Inside Layer

Construction,
    GroundFloor,              !- Name
    Concrete200,              !- Outside Layer
    FloorInsulation;          !- Inside Layer

Construction,
    InteriorFloor,            !- Name
    Concrete150;              !- Single layer (thermal mass)

!- Triple glazing (U=0.8 from back-calculation, typical 2003 eco-district)
WindowMaterial:SimpleGlazingSystem,
    TripleGlazing,            !- Name
    0.8,                      !- U-Factor (W/m²K)
    0.5,                      !- Solar Heat Gain Coefficient
    0.65;                     !- Visible Transmittance

Construction,
    WindowConstruction,       !- Name
    TripleGlazing;            !- Outside Layer

!- ============================================================
!- ZONE DEFINITIONS (7 floors, 320 m² each)
!- ============================================================

Zone,
    Floor1,                   !- Name
    0,                        !- Direction of Relative North
    0, 0, 0,                  !- X,Y,Z Origin
    1,                        !- Type
    1,                        !- Multiplier
    3,                        !- Ceiling Height (m)
    960;                      !- Volume (320 m² x 3m)

Zone,
    Floor2,                   !- Name
    0,                        !- Direction of Relative North
    0, 0, 3,                  !- X,Y,Z Origin
    1,                        !- Type
    1,                        !- Multiplier
    3,                        !- Ceiling Height (m)
    960;                      !- Volume

Zone,
    Floor3,                   !- Name
    0,                        !- Direction of Relative North
    0, 0, 6,                  !- X,Y,Z Origin
    1,                        !- Type
    1,                        !- Multiplier
    3,                        !- Ceiling Height (m)
    960;                      !- Volume

Zone,
    Floor4,                   !- Name
    0,                        !- Direction of Relative North
    0, 0, 9,                  !- X,Y,Z Origin
    1,                        !- Type
    1,                        !- Multiplier
    3,                        !- Ceiling Height (m)
    960;                      !- Volume

Zone,
    Floor5,                   !- Name
    0,                        !- Direction of Relative North
    0, 0, 12,                 !- X,Y,Z Origin
    1,                        !- Type
    1,                        !- Multiplier
    3,                        !- Ceiling Height (m)
    960;                      !- Volume

Zone,
    Floor6,                   !- Name
    0,                        !- Direction of Relative North
    0, 0, 15,                 !- X,Y,Z Origin
    1,                        !- Type
    1,                        !- Multiplier
    3,                        !- Ceiling Height (m)
    960;                      !- Volume

Zone,
    Floor7,                   !- Name
    0,                        !- Direction of Relative North
    0, 0, 18,                 !- X,Y,Z Origin
    1,                        !- Type
    1,                        !- Multiplier
    3,                        !- Ceiling Height (m)
    960;                      !- Volume

!- ============================================================
!- FLOOR 1 SURFACES (Ground floor)
!- ============================================================

BuildingSurface:Detailed,
    Floor1_Floor,             !- Name
    Floor,                    !- Surface Type
    GroundFloor,              !- Construction Name
    Floor1,                   !- Zone Name
    ,                         !- Space Name
    Ground,                   !- Outside Boundary Condition
    ,                         !- Outside Boundary Condition Object
    NoSun,                    !- Sun Exposure
    NoWind,                   !- Wind Exposure
    0,                        !- View Factor to Ground
    4,                        !- Number of Vertices
    0, 0, 0,
    0, 16, 0,
    20, 16, 0,
    20, 0, 0;

BuildingSurface:Detailed,
    Floor1_Ceiling,           !- Name
    Ceiling,                  !- Surface Type
    InteriorFloor,            !- Construction Name
    Floor1,                   !- Zone Name
    ,                         !- Space Name
    Surface,                  !- Outside Boundary Condition
    Floor2_Floor,             !- Outside Boundary Condition Object
    NoSun,                    !- Sun Exposure
    NoWind,                   !- Wind Exposure
    0,                        !- View Factor to Ground
    4,                        !- Number of Vertices
    20, 0, 3,
    20, 16, 3,
    0, 16, 3,
    0, 0, 3;

BuildingSurface:Detailed,
    Floor1_WallNorth,         !- Name
    Wall,                     !- Surface Type
    ExteriorWall,             !- Construction Name
    Floor1,                   !- Zone Name
    ,                         !- Space Name
    Outdoors,                 !- Outside Boundary Condition
    ,                         !- Outside Boundary Condition Object
    SunExposed,               !- Sun Exposure
    WindExposed,              !- Wind Exposure
    0.5,                      !- View Factor to Ground
    4,                        !- Number of Vertices
    0, 16, 3,
    0, 16, 0,
    20, 16, 0,
    20, 16, 3;

BuildingSurface:Detailed,
    Floor1_WallSouth,         !- Name
    Wall,                     !- Surface Type
    ExteriorWall,             !- Construction Name
    Floor1,                   !- Zone Name
    ,                         !- Space Name
    Outdoors,                 !- Outside Boundary Condition
    ,                         !- Outside Boundary Condition Object
    SunExposed,               !- Sun Exposure
    WindExposed,              !- Wind Exposure
    0.5,                      !- View Factor to Ground
    4,                        !- Number of Vertices
    20, 0, 3,
    20, 0, 0,
    0, 0, 0,
    0, 0, 3;

BuildingSurface:Detailed,
    Floor1_WallEast,          !- Name
    Wall,                     !- Surface Type
    ExteriorWall,             !- Construction Name
    Floor1,                   !- Zone Name
    ,                         !- Space Name
    Outdoors,                 !- Outside Boundary Condition
    ,                         !- Outside Boundary Condition Object
    SunExposed,               !- Sun Exposure
    WindExposed,              !- Wind Exposure
    0.5,                      !- View Factor to Ground
    4,                        !- Number of Vertices
    20, 16, 3,
    20, 16, 0,
    20, 0, 0,
    20, 0, 3;

BuildingSurface:Detailed,
    Floor1_WallWest,          !- Name
    Wall,                     !- Surface Type
    ExteriorWall,             !- Construction Name
    Floor1,                   !- Zone Name
    ,                         !- Space Name
    Outdoors,                 !- Outside Boundary Condition
    ,                         !- Outside Boundary Condition Object
    SunExposed,               !- Sun Exposure
    WindExposed,              !- Wind Exposure
    0.5,                      !- View Factor to Ground
    4,                        !- Number of Vertices
    0, 0, 3,
    0, 0, 0,
    0, 16, 0,
    0, 16, 3;

!- Floor 1 Windows (WWR ~17%)
FenestrationSurface:Detailed,
    Floor1_WinSouth,          !- Name
    Window,                   !- Surface Type
    WindowConstruction,       !- Construction Name
    Floor1_WallSouth,         !- Building Surface Name
    ,                         !- Outside Boundary Condition Object
    0.5,                      !- View Factor to Ground
    ,                         !- Frame and Divider Name
    1,                        !- Multiplier
    4,                        !- Number of Vertices
    16, 0, 2.5,
    16, 0, 0.8,
    4, 0, 0.8,
    4, 0, 2.5;

FenestrationSurface:Detailed,
    Floor1_WinNorth,          !- Name
    Window,                   !- Surface Type
    WindowConstruction,       !- Construction Name
    Floor1_WallNorth,         !- Building Surface Name
    ,                         !- Outside Boundary Condition Object
    0.5,                      !- View Factor to Ground
    ,                         !- Frame and Divider Name
    1,                        !- Multiplier
    4,                        !- Number of Vertices
    4, 16, 2.5,
    4, 16, 0.8,
    16, 16, 0.8,
    16, 16, 2.5;

FenestrationSurface:Detailed,
    Floor1_WinEast,           !- Name
    Window,                   !- Surface Type
    WindowConstruction,       !- Construction Name
    Floor1_WallEast,          !- Building Surface Name
    ,                         !- Outside Boundary Condition Object
    0.5,                      !- View Factor to Ground
    ,                         !- Frame and Divider Name
    1,                        !- Multiplier
    4,                        !- Number of Vertices
    20, 12, 2.5,
    20, 12, 0.8,
    20, 4, 0.8,
    20, 4, 2.5;

FenestrationSurface:Detailed,
    Floor1_WinWest,           !- Name
    Window,                   !- Surface Type
    WindowConstruction,       !- Construction Name
    Floor1_WallWest,          !- Building Surface Name
    ,                         !- Outside Boundary Condition Object
    0.5,                      !- View Factor to Ground
    ,                         !- Frame and Divider Name
    1,                        !- Multiplier
    4,                        !- Number of Vertices
    0, 4, 2.5,
    0, 4, 0.8,
    0, 12, 0.8,
    0, 12, 2.5;

!- ============================================================
!- FLOORS 2-6 (Middle floors - using multiplier concept inline)
!- ============================================================

BuildingSurface:Detailed,
    Floor2_Floor, Floor, InteriorFloor, Floor2, , Surface, Floor1_Ceiling, NoSun, NoWind, 0, 4,
    0, 0, 3, 0, 16, 3, 20, 16, 3, 20, 0, 3;

BuildingSurface:Detailed,
    Floor2_Ceiling, Ceiling, InteriorFloor, Floor2, , Surface, Floor3_Floor, NoSun, NoWind, 0, 4,
    20, 0, 6, 20, 16, 6, 0, 16, 6, 0, 0, 6;

BuildingSurface:Detailed,
    Floor2_WallNorth, Wall, ExteriorWall, Floor2, , Outdoors, , SunExposed, WindExposed, 0.5, 4,
    0, 16, 6, 0, 16, 3, 20, 16, 3, 20, 16, 6;

BuildingSurface:Detailed,
    Floor2_WallSouth, Wall, ExteriorWall, Floor2, , Outdoors, , SunExposed, WindExposed, 0.5, 4,
    20, 0, 6, 20, 0, 3, 0, 0, 3, 0, 0, 6;

BuildingSurface:Detailed,
    Floor2_WallEast, Wall, ExteriorWall, Floor2, , Outdoors, , SunExposed, WindExposed, 0.5, 4,
    20, 16, 6, 20, 16, 3, 20, 0, 3, 20, 0, 6;

BuildingSurface:Detailed,
    Floor2_WallWest, Wall, ExteriorWall, Floor2, , Outdoors, , SunExposed, WindExposed, 0.5, 4,
    0, 0, 6, 0, 0, 3, 0, 16, 3, 0, 16, 6;

FenestrationSurface:Detailed,
    Floor2_WinSouth, Window, WindowConstruction, Floor2_WallSouth, , 0.5, , 1, 4,
    16, 0, 5.5, 16, 0, 3.8, 4, 0, 3.8, 4, 0, 5.5;

FenestrationSurface:Detailed,
    Floor2_WinNorth, Window, WindowConstruction, Floor2_WallNorth, , 0.5, , 1, 4,
    4, 16, 5.5, 4, 16, 3.8, 16, 16, 3.8, 16, 16, 5.5;

FenestrationSurface:Detailed,
    Floor2_WinEast, Window, WindowConstruction, Floor2_WallEast, , 0.5, , 1, 4,
    20, 12, 5.5, 20, 12, 3.8, 20, 4, 3.8, 20, 4, 5.5;

FenestrationSurface:Detailed,
    Floor2_WinWest, Window, WindowConstruction, Floor2_WallWest, , 0.5, , 1, 4,
    0, 4, 5.5, 0, 4, 3.8, 0, 12, 3.8, 0, 12, 5.5;

!- Floor 3
BuildingSurface:Detailed,
    Floor3_Floor, Floor, InteriorFloor, Floor3, , Surface, Floor2_Ceiling, NoSun, NoWind, 0, 4,
    0, 0, 6, 0, 16, 6, 20, 16, 6, 20, 0, 6;

BuildingSurface:Detailed,
    Floor3_Ceiling, Ceiling, InteriorFloor, Floor3, , Surface, Floor4_Floor, NoSun, NoWind, 0, 4,
    20, 0, 9, 20, 16, 9, 0, 16, 9, 0, 0, 9;

BuildingSurface:Detailed,
    Floor3_WallNorth, Wall, ExteriorWall, Floor3, , Outdoors, , SunExposed, WindExposed, 0.5, 4,
    0, 16, 9, 0, 16, 6, 20, 16, 6, 20, 16, 9;

BuildingSurface:Detailed,
    Floor3_WallSouth, Wall, ExteriorWall, Floor3, , Outdoors, , SunExposed, WindExposed, 0.5, 4,
    20, 0, 9, 20, 0, 6, 0, 0, 6, 0, 0, 9;

BuildingSurface:Detailed,
    Floor3_WallEast, Wall, ExteriorWall, Floor3, , Outdoors, , SunExposed, WindExposed, 0.5, 4,
    20, 16, 9, 20, 16, 6, 20, 0, 6, 20, 0, 9;

BuildingSurface:Detailed,
    Floor3_WallWest, Wall, ExteriorWall, Floor3, , Outdoors, , SunExposed, WindExposed, 0.5, 4,
    0, 0, 9, 0, 0, 6, 0, 16, 6, 0, 16, 9;

FenestrationSurface:Detailed,
    Floor3_WinSouth, Window, WindowConstruction, Floor3_WallSouth, , 0.5, , 1, 4,
    16, 0, 8.5, 16, 0, 6.8, 4, 0, 6.8, 4, 0, 8.5;

FenestrationSurface:Detailed,
    Floor3_WinNorth, Window, WindowConstruction, Floor3_WallNorth, , 0.5, , 1, 4,
    4, 16, 8.5, 4, 16, 6.8, 16, 16, 6.8, 16, 16, 8.5;

FenestrationSurface:Detailed,
    Floor3_WinEast, Window, WindowConstruction, Floor3_WallEast, , 0.5, , 1, 4,
    20, 12, 8.5, 20, 12, 6.8, 20, 4, 6.8, 20, 4, 8.5;

FenestrationSurface:Detailed,
    Floor3_WinWest, Window, WindowConstruction, Floor3_WallWest, , 0.5, , 1, 4,
    0, 4, 8.5, 0, 4, 6.8, 0, 12, 6.8, 0, 12, 8.5;

!- Floor 4
BuildingSurface:Detailed,
    Floor4_Floor, Floor, InteriorFloor, Floor4, , Surface, Floor3_Ceiling, NoSun, NoWind, 0, 4,
    0, 0, 9, 0, 16, 9, 20, 16, 9, 20, 0, 9;

BuildingSurface:Detailed,
    Floor4_Ceiling, Ceiling, InteriorFloor, Floor4, , Surface, Floor5_Floor, NoSun, NoWind, 0, 4,
    20, 0, 12, 20, 16, 12, 0, 16, 12, 0, 0, 12;

BuildingSurface:Detailed,
    Floor4_WallNorth, Wall, ExteriorWall, Floor4, , Outdoors, , SunExposed, WindExposed, 0.5, 4,
    0, 16, 12, 0, 16, 9, 20, 16, 9, 20, 16, 12;

BuildingSurface:Detailed,
    Floor4_WallSouth, Wall, ExteriorWall, Floor4, , Outdoors, , SunExposed, WindExposed, 0.5, 4,
    20, 0, 12, 20, 0, 9, 0, 0, 9, 0, 0, 12;

BuildingSurface:Detailed,
    Floor4_WallEast, Wall, ExteriorWall, Floor4, , Outdoors, , SunExposed, WindExposed, 0.5, 4,
    20, 16, 12, 20, 16, 9, 20, 0, 9, 20, 0, 12;

BuildingSurface:Detailed,
    Floor4_WallWest, Wall, ExteriorWall, Floor4, , Outdoors, , SunExposed, WindExposed, 0.5, 4,
    0, 0, 12, 0, 0, 9, 0, 16, 9, 0, 16, 12;

FenestrationSurface:Detailed,
    Floor4_WinSouth, Window, WindowConstruction, Floor4_WallSouth, , 0.5, , 1, 4,
    16, 0, 11.5, 16, 0, 9.8, 4, 0, 9.8, 4, 0, 11.5;

FenestrationSurface:Detailed,
    Floor4_WinNorth, Window, WindowConstruction, Floor4_WallNorth, , 0.5, , 1, 4,
    4, 16, 11.5, 4, 16, 9.8, 16, 16, 9.8, 16, 16, 11.5;

FenestrationSurface:Detailed,
    Floor4_WinEast, Window, WindowConstruction, Floor4_WallEast, , 0.5, , 1, 4,
    20, 12, 11.5, 20, 12, 9.8, 20, 4, 9.8, 20, 4, 11.5;

FenestrationSurface:Detailed,
    Floor4_WinWest, Window, WindowConstruction, Floor4_WallWest, , 0.5, , 1, 4,
    0, 4, 11.5, 0, 4, 9.8, 0, 12, 9.8, 0, 12, 11.5;

!- Floor 5
BuildingSurface:Detailed,
    Floor5_Floor, Floor, InteriorFloor, Floor5, , Surface, Floor4_Ceiling, NoSun, NoWind, 0, 4,
    0, 0, 12, 0, 16, 12, 20, 16, 12, 20, 0, 12;

BuildingSurface:Detailed,
    Floor5_Ceiling, Ceiling, InteriorFloor, Floor5, , Surface, Floor6_Floor, NoSun, NoWind, 0, 4,
    20, 0, 15, 20, 16, 15, 0, 16, 15, 0, 0, 15;

BuildingSurface:Detailed,
    Floor5_WallNorth, Wall, ExteriorWall, Floor5, , Outdoors, , SunExposed, WindExposed, 0.5, 4,
    0, 16, 15, 0, 16, 12, 20, 16, 12, 20, 16, 15;

BuildingSurface:Detailed,
    Floor5_WallSouth, Wall, ExteriorWall, Floor5, , Outdoors, , SunExposed, WindExposed, 0.5, 4,
    20, 0, 15, 20, 0, 12, 0, 0, 12, 0, 0, 15;

BuildingSurface:Detailed,
    Floor5_WallEast, Wall, ExteriorWall, Floor5, , Outdoors, , SunExposed, WindExposed, 0.5, 4,
    20, 16, 15, 20, 16, 12, 20, 0, 12, 20, 0, 15;

BuildingSurface:Detailed,
    Floor5_WallWest, Wall, ExteriorWall, Floor5, , Outdoors, , SunExposed, WindExposed, 0.5, 4,
    0, 0, 15, 0, 0, 12, 0, 16, 12, 0, 16, 15;

FenestrationSurface:Detailed,
    Floor5_WinSouth, Window, WindowConstruction, Floor5_WallSouth, , 0.5, , 1, 4,
    16, 0, 14.5, 16, 0, 12.8, 4, 0, 12.8, 4, 0, 14.5;

FenestrationSurface:Detailed,
    Floor5_WinNorth, Window, WindowConstruction, Floor5_WallNorth, , 0.5, , 1, 4,
    4, 16, 14.5, 4, 16, 12.8, 16, 16, 12.8, 16, 16, 14.5;

FenestrationSurface:Detailed,
    Floor5_WinEast, Window, WindowConstruction, Floor5_WallEast, , 0.5, , 1, 4,
    20, 12, 14.5, 20, 12, 12.8, 20, 4, 12.8, 20, 4, 14.5;

FenestrationSurface:Detailed,
    Floor5_WinWest, Window, WindowConstruction, Floor5_WallWest, , 0.5, , 1, 4,
    0, 4, 14.5, 0, 4, 12.8, 0, 12, 12.8, 0, 12, 14.5;

!- Floor 6
BuildingSurface:Detailed,
    Floor6_Floor, Floor, InteriorFloor, Floor6, , Surface, Floor5_Ceiling, NoSun, NoWind, 0, 4,
    0, 0, 15, 0, 16, 15, 20, 16, 15, 20, 0, 15;

BuildingSurface:Detailed,
    Floor6_Ceiling, Ceiling, InteriorFloor, Floor6, , Surface, Floor7_Floor, NoSun, NoWind, 0, 4,
    20, 0, 18, 20, 16, 18, 0, 16, 18, 0, 0, 18;

BuildingSurface:Detailed,
    Floor6_WallNorth, Wall, ExteriorWall, Floor6, , Outdoors, , SunExposed, WindExposed, 0.5, 4,
    0, 16, 18, 0, 16, 15, 20, 16, 15, 20, 16, 18;

BuildingSurface:Detailed,
    Floor6_WallSouth, Wall, ExteriorWall, Floor6, , Outdoors, , SunExposed, WindExposed, 0.5, 4,
    20, 0, 18, 20, 0, 15, 0, 0, 15, 0, 0, 18;

BuildingSurface:Detailed,
    Floor6_WallEast, Wall, ExteriorWall, Floor6, , Outdoors, , SunExposed, WindExposed, 0.5, 4,
    20, 16, 18, 20, 16, 15, 20, 0, 15, 20, 0, 18;

BuildingSurface:Detailed,
    Floor6_WallWest, Wall, ExteriorWall, Floor6, , Outdoors, , SunExposed, WindExposed, 0.5, 4,
    0, 0, 18, 0, 0, 15, 0, 16, 15, 0, 16, 18;

FenestrationSurface:Detailed,
    Floor6_WinSouth, Window, WindowConstruction, Floor6_WallSouth, , 0.5, , 1, 4,
    16, 0, 17.5, 16, 0, 15.8, 4, 0, 15.8, 4, 0, 17.5;

FenestrationSurface:Detailed,
    Floor6_WinNorth, Window, WindowConstruction, Floor6_WallNorth, , 0.5, , 1, 4,
    4, 16, 17.5, 4, 16, 15.8, 16, 16, 15.8, 16, 16, 17.5;

FenestrationSurface:Detailed,
    Floor6_WinEast, Window, WindowConstruction, Floor6_WallEast, , 0.5, , 1, 4,
    20, 12, 17.5, 20, 12, 15.8, 20, 4, 15.8, 20, 4, 17.5;

FenestrationSurface:Detailed,
    Floor6_WinWest, Window, WindowConstruction, Floor6_WallWest, , 0.5, , 1, 4,
    0, 4, 17.5, 0, 4, 15.8, 0, 12, 15.8, 0, 12, 17.5;

!- ============================================================
!- FLOOR 7 (Top floor - roof exposure)
!- ============================================================

BuildingSurface:Detailed,
    Floor7_Floor, Floor, InteriorFloor, Floor7, , Surface, Floor6_Ceiling, NoSun, NoWind, 0, 4,
    0, 0, 18, 0, 16, 18, 20, 16, 18, 20, 0, 18;

BuildingSurface:Detailed,
    Floor7_Roof,              !- Name
    Roof,                     !- Surface Type
    Roof,                     !- Construction Name
    Floor7,                   !- Zone Name
    ,                         !- Space Name
    Outdoors,                 !- Outside Boundary Condition
    ,                         !- Outside Boundary Condition Object
    SunExposed,               !- Sun Exposure
    WindExposed,              !- Wind Exposure
    0,                        !- View Factor to Ground
    4,                        !- Number of Vertices
    20, 0, 21,
    20, 16, 21,
    0, 16, 21,
    0, 0, 21;

BuildingSurface:Detailed,
    Floor7_WallNorth, Wall, ExteriorWall, Floor7, , Outdoors, , SunExposed, WindExposed, 0.5, 4,
    0, 16, 21, 0, 16, 18, 20, 16, 18, 20, 16, 21;

BuildingSurface:Detailed,
    Floor7_WallSouth, Wall, ExteriorWall, Floor7, , Outdoors, , SunExposed, WindExposed, 0.5, 4,
    20, 0, 21, 20, 0, 18, 0, 0, 18, 0, 0, 21;

BuildingSurface:Detailed,
    Floor7_WallEast, Wall, ExteriorWall, Floor7, , Outdoors, , SunExposed, WindExposed, 0.5, 4,
    20, 16, 21, 20, 16, 18, 20, 0, 18, 20, 0, 21;

BuildingSurface:Detailed,
    Floor7_WallWest, Wall, ExteriorWall, Floor7, , Outdoors, , SunExposed, WindExposed, 0.5, 4,
    0, 0, 21, 0, 0, 18, 0, 16, 18, 0, 16, 21;

FenestrationSurface:Detailed,
    Floor7_WinSouth, Window, WindowConstruction, Floor7_WallSouth, , 0.5, , 1, 4,
    16, 0, 20.5, 16, 0, 18.8, 4, 0, 18.8, 4, 0, 20.5;

FenestrationSurface:Detailed,
    Floor7_WinNorth, Window, WindowConstruction, Floor7_WallNorth, , 0.5, , 1, 4,
    4, 16, 20.5, 4, 16, 18.8, 16, 16, 18.8, 16, 16, 20.5;

FenestrationSurface:Detailed,
    Floor7_WinEast, Window, WindowConstruction, Floor7_WallEast, , 0.5, , 1, 4,
    20, 12, 20.5, 20, 12, 18.8, 20, 4, 18.8, 20, 4, 20.5;

FenestrationSurface:Detailed,
    Floor7_WinWest, Window, WindowConstruction, Floor7_WallWest, , 0.5, , 1, 4,
    0, 4, 20.5, 0, 4, 18.8, 0, 12, 18.8, 0, 12, 20.5;

!- ============================================================
!- INTERNAL LOADS (Realistic Swedish Sveby values)
!- Reduced from previous unrealistic values
!- ============================================================

!- PEOPLE: 73 total → ~10/floor, but now with realistic schedules
!- Sveby: ~1 person per 40m² presence average
People, Floor1_People, Floor1, OccupancySchedule, People, 10, , , 0.3, autocalculate, ActivityLevel;