Version,25.1;

Building,TestBuilding,0,City,0.04,0.4,FullExterior,25,6;
Timestep,4;
HeatBalanceAlgorithm,ConductionTransferFunction;
SurfaceConvectionAlgorithm:Inside,TARP;
SurfaceConvectionAlgorithm:Outside,DOE-2;
SimulationControl,No,No,No,No,Yes;
RunPeriod,Annual,1,1,,12,31,,Sunday,No,No,No,Yes,Yes;
Site:Location,Stockholm,59.35,17.95,1.0,44;
GlobalGeometryRules,UpperLeftCorner,Counterclockwise,Relative;

ScheduleTypeLimits,Fraction,0,1,Continuous;
ScheduleTypeLimits,Temperature,-50,50,Continuous;
ScheduleTypeLimits,Any Number,,,Continuous;

Schedule:Constant,AlwaysOn,Fraction,1;
Schedule:Constant,HeatSet,Temperature,21;
Schedule:Constant,CoolSet,Temperature,50;
Schedule:Constant,ThermType,Any Number,4;

DesignSpecification:OutdoorAir,OA_Spec,Flow/Area,,0.00035;

OutdoorAir:NodeList,OA1;
OutdoorAir:NodeList,OA2;

Material,Concrete,MediumRough,0.2,1.0,2300,880;
Material,Insulation,MediumRough,0.15,0.04,30,840;
Construction,WallConst,Concrete,Insulation;
Construction,FloorConst,Concrete,Insulation;

Zone,Zone1,0,0,0,0,1,1,3,300;
Zone,Zone2,0,0,0,3,1,1,3,300;

BuildingSurface:Detailed,Floor1,Floor,FloorConst,Zone1,,Ground,,NoSun,NoWind,,4,0,0,0,10,0,0,10,10,0,0,10,0;
BuildingSurface:Detailed,Roof1,Roof,WallConst,Zone1,,Outdoors,,SunExposed,WindExposed,,4,0,10,3,10,10,3,10,0,3,0,0,3;
BuildingSurface:Detailed,Wall1_1,Wall,WallConst,Zone1,,Outdoors,,SunExposed,WindExposed,,4,0,0,3,0,0,0,10,0,0,10,0,3;
BuildingSurface:Detailed,Wall1_2,Wall,WallConst,Zone1,,Outdoors,,SunExposed,WindExposed,,4,10,0,3,10,0,0,10,10,0,10,10,3;
BuildingSurface:Detailed,Wall1_3,Wall,WallConst,Zone1,,Outdoors,,SunExposed,WindExposed,,4,10,10,3,10,10,0,0,10,0,0,10,3;
BuildingSurface:Detailed,Wall1_4,Wall,WallConst,Zone1,,Outdoors,,SunExposed,WindExposed,,4,0,10,3,0,10,0,0,0,0,0,0,3;

BuildingSurface:Detailed,Floor2,Floor,FloorConst,Zone2,,Ground,,NoSun,NoWind,,4,0,0,3,10,0,3,10,10,3,0,10,3;
BuildingSurface:Detailed,Roof2,Roof,WallConst,Zone2,,Outdoors,,SunExposed,WindExposed,,4,0,10,6,10,10,6,10,0,6,0,0,6;
BuildingSurface:Detailed,Wall2_1,Wall,WallConst,Zone2,,Outdoors,,SunExposed,WindExposed,,4,0,0,6,0,0,3,10,0,3,10,0,6;
BuildingSurface:Detailed,Wall2_2,Wall,WallConst,Zone2,,Outdoors,,SunExposed,WindExposed,,4,10,0,6,10,0,3,10,10,3,10,10,6;
BuildingSurface:Detailed,Wall2_3,Wall,WallConst,Zone2,,Outdoors,,SunExposed,WindExposed,,4,10,10,6,10,10,3,0,10,3,0,10,6;
BuildingSurface:Detailed,Wall2_4,Wall,WallConst,Zone2,,Outdoors,,SunExposed,WindExposed,,4,0,10,6,0,10,3,0,0,3,0,0,6;

ZoneHVAC:IdealLoadsAirSystem,IL1,,Supply1,Ex1,,50,13,0.015,0.009,NoLimit,autosize,,NoLimit,autosize,,,,,ConstantSupplyHumidityRatio,,ConstantSupplyHumidityRatio,OA_Spec,OA1,None,NoEconomizer,Sensible,0.70,0.0;
ZoneHVAC:IdealLoadsAirSystem,IL2,,Supply2,Ex2,,50,13,0.015,0.009,NoLimit,autosize,,NoLimit,autosize,,,,,ConstantSupplyHumidityRatio,,ConstantSupplyHumidityRatio,OA_Spec,OA2,None,NoEconomizer,Sensible,0.70,0.0;

ZoneHVAC:EquipmentList,EL1,SequentialLoad,ZoneHVAC:IdealLoadsAirSystem,IL1,1,1;
ZoneHVAC:EquipmentList,EL2,SequentialLoad,ZoneHVAC:IdealLoadsAirSystem,IL2,1,1;

ZoneHVAC:EquipmentConnections,Zone1,EL1,Supply1,Ex1,Air1,Return1;
ZoneHVAC:EquipmentConnections,Zone2,EL2,Supply2,Ex2,Air2,Return2;

ZoneControl:Thermostat,T1,Zone1,ThermType,ThermostatSetpoint:DualSetpoint,DS1;
ZoneControl:Thermostat,T2,Zone2,ThermType,ThermostatSetpoint:DualSetpoint,DS2;
ThermostatSetpoint:DualSetpoint,DS1,HeatSet,CoolSet;
ThermostatSetpoint:DualSetpoint,DS2,HeatSet,CoolSet;

Output:Variable,*,Zone Ideal Loads Zone Total Heating Energy,Hourly;
OutputControl:Table:Style,Comma,JtoKWH;
Output:Table:SummaryReports,AllSummary;
